*SPEF "ieee 1481-1999"
*DESIGN "natalius_soc"
*DATE "11:11:11 Fri 11 11, 1111"
*VENDOR "OpenRCX"
*PROGRAM "Parallel Extraction"
*VERSION "1.0"
*DESIGN_FLOW "NAME_SCOPE LOCAL" "PIN_CAP NONE"
*DIVIDER /
*DELIMITER :
*BUS_DELIMITER []
*T_UNIT 1 NS
*C_UNIT 1 PF
*R_UNIT 1 OHM
*L_UNIT 1 HENRY

*NAME_MAP
*1 addr0[0]
*2 addr0[10]
*3 addr0[11]
*4 addr0[12]
*5 addr0[13]
*6 addr0[14]
*7 addr0[15]
*8 addr0[16]
*9 addr0[17]
*10 addr0[18]
*11 addr0[19]
*12 addr0[1]
*13 addr0[20]
*14 addr0[21]
*15 addr0[22]
*16 addr0[23]
*17 addr0[24]
*18 addr0[25]
*19 addr0[26]
*20 addr0[27]
*21 addr0[28]
*22 addr0[29]
*23 addr0[2]
*24 addr0[30]
*25 addr0[31]
*26 addr0[3]
*27 addr0[4]
*28 addr0[5]
*29 addr0[6]
*30 addr0[7]
*31 addr0[8]
*32 addr0[9]
*33 net30
*34 clk
*35 din0[0]
*36 din0[10]
*37 din0[11]
*38 din0[12]
*39 din0[13]
*40 din0[14]
*41 din0[15]
*42 din0[1]
*43 din0[2]
*44 din0[3]
*45 din0[4]
*46 din0[5]
*47 din0[6]
*48 din0[7]
*49 din0[8]
*50 din0[9]
*51 din[0]
*52 din[1]
*53 din[2]
*54 din[3]
*55 din[4]
*56 din[5]
*57 din[6]
*58 din[7]
*59 net5
*60 net15
*61 net16
*62 net17
*63 net18
*64 net19
*65 net20
*66 net6
*67 net7
*68 net8
*69 net9
*70 net10
*71 net11
*72 net12
*73 net13
*74 net14
*75 net21
*76 net22
*77 net23
*78 net24
*79 net25
*80 net26
*81 net27
*82 net28
*83 net4
*84 hs
*85 net31
*86 net46
*87 net47
*88 net48
*89 net49
*90 net50
*91 net51
*92 net39
*93 net40
*94 net41
*95 net42
*96 net32
*97 net43
*98 net33
*99 net34
*100 net35
*101 net36
*102 net37
*103 net38
*104 net44
*105 net45
*106 net29
*107 rst
*109 vs
*111 wbs_cyc_i
*112 wbs_stb_i
*113 web
*114 wmask0[0]
*115 wmask0[1]
*116 _000_
*117 _001_
*118 _002_
*119 _003_
*120 _004_
*121 _005_
*122 _006_
*123 _007_
*124 _008_
*125 _009_
*126 _010_
*127 _011_
*128 _012_
*129 _013_
*130 _014_
*131 _015_
*132 _016_
*133 _017_
*134 _018_
*135 _019_
*136 _020_
*137 _021_
*138 _022_
*139 _023_
*140 _024_
*141 _025_
*142 _026_
*143 _027_
*144 _028_
*145 _029_
*146 _030_
*147 _031_
*148 _032_
*149 _033_
*150 _034_
*151 _035_
*152 _036_
*153 _037_
*154 _038_
*155 _039_
*156 _040_
*157 _041_
*158 _042_
*159 _043_
*160 _044_
*161 _045_
*162 _046_
*163 _047_
*164 _048_
*165 _049_
*166 _050_
*167 _051_
*168 _052_
*169 _053_
*170 _054_
*171 _055_
*172 _056_
*173 _057_
*174 _058_
*175 _059_
*176 _060_
*177 _061_
*178 _062_
*179 _063_
*180 _064_
*181 _065_
*182 _066_
*183 _067_
*184 _068_
*185 _069_
*186 _070_
*187 _071_
*188 _072_
*189 _073_
*190 _074_
*191 _075_
*192 _076_
*193 _077_
*194 _078_
*195 _079_
*196 _080_
*197 _081_
*198 _082_
*199 _083_
*200 _084_
*201 _085_
*202 _086_
*203 _087_
*204 _088_
*205 _089_
*206 _090_
*207 _091_
*208 _092_
*209 _093_
*210 _094_
*211 _095_
*212 _096_
*213 _097_
*214 _098_
*215 _099_
*216 _100_
*217 _101_
*218 _102_
*219 _103_
*220 _104_
*221 _105_
*222 clknet_0_clk
*223 clknet_1_0_0_clk
*224 clknet_1_1_0_clk
*225 net1
*226 net2
*227 net3
*228 video_cntrl\.addrb\[0\]
*229 video_cntrl\.addrb\[10\]
*230 video_cntrl\.addrb\[11\]
*231 video_cntrl\.addrb\[12\]
*232 video_cntrl\.addrb\[1\]
*233 video_cntrl\.addrb\[2\]
*234 video_cntrl\.addrb\[3\]
*235 video_cntrl\.addrb\[4\]
*236 video_cntrl\.addrb\[5\]
*237 video_cntrl\.addrb\[6\]
*238 video_cntrl\.addrb\[7\]
*239 video_cntrl\.addrb\[8\]
*240 video_cntrl\.addrb\[9\]
*241 video_cntrl\.clk25
*242 video_cntrl\.hcnt\[0\]
*243 video_cntrl\.hcnt\[1\]
*244 video_cntrl\.hcnt\[2\]
*245 video_cntrl\.hsync
*246 video_cntrl\.vcnt\[0\]
*247 video_cntrl\.vcnt\[1\]
*248 video_cntrl\.vcnt\[2\]
*249 video_cntrl\.vsync
*250 ANTENNA__126__A2
*251 ANTENNA__129__A
*252 ANTENNA__132__A1
*253 ANTENNA__150__A
*254 ANTENNA__154__A
*255 ANTENNA__154__B
*256 ANTENNA__155__A
*257 ANTENNA__155__B
*258 ANTENNA__158__A
*259 ANTENNA__158__C
*260 ANTENNA__165__A
*261 ANTENNA__166__A
*262 ANTENNA__176__A1
*263 ANTENNA__177__A1
*264 ANTENNA__179__A1
*265 ANTENNA__203__A
*266 ANTENNA__204__A
*267 ANTENNA__205__A
*268 ANTENNA__206__A
*269 ANTENNA__207__A
*270 ANTENNA_clkbuf_0_clk_A
*271 ANTENNA_input1_A
*272 FILLER_0_1005
*273 FILLER_0_1012
*274 FILLER_0_1024
*275 FILLER_0_1037
*276 FILLER_0_1049
*277 FILLER_0_1061
*278 FILLER_0_1065
*279 FILLER_0_1077
*280 FILLER_0_1089
*281 FILLER_0_109
*282 FILLER_0_1093
*283 FILLER_0_1105
*284 FILLER_0_1117
*285 FILLER_0_1121
*286 FILLER_0_113
*287 FILLER_0_1133
*288 FILLER_0_1145
*289 FILLER_0_1149
*290 FILLER_0_1161
*291 FILLER_0_1173
*292 FILLER_0_1180
*293 FILLER_0_1192
*294 FILLER_0_1205
*295 FILLER_0_1217
*296 FILLER_0_1229
*297 FILLER_0_1233
*298 FILLER_0_1245
*299 FILLER_0_125
*300 FILLER_0_1257
*301 FILLER_0_1261
*302 FILLER_0_1273
*303 FILLER_0_1285
*304 FILLER_0_1289
*305 FILLER_0_1301
*306 FILLER_0_1313
*307 FILLER_0_1317
*308 FILLER_0_1329
*309 FILLER_0_1341
*310 FILLER_0_1345
*311 FILLER_0_1357
*312 FILLER_0_1369
*313 FILLER_0_137
*314 FILLER_0_1373
*315 FILLER_0_1385
*316 FILLER_0_1397
*317 FILLER_0_1401
*318 FILLER_0_141
*319 FILLER_0_1413
*320 FILLER_0_1418
*321 FILLER_0_1426
*322 FILLER_0_1429
*323 FILLER_0_1441
*324 FILLER_0_1453
*325 FILLER_0_1457
*326 FILLER_0_1469
*327 FILLER_0_1481
*328 FILLER_0_1485
*329 FILLER_0_1493
*330 FILLER_0_1499
*331 FILLER_0_15
*332 FILLER_0_1511
*333 FILLER_0_1513
*334 FILLER_0_1525
*335 FILLER_0_153
*336 FILLER_0_1537
*337 FILLER_0_1541
*338 FILLER_0_1553
*339 FILLER_0_1565
*340 FILLER_0_1569
*341 FILLER_0_1581
*342 FILLER_0_1593
*343 FILLER_0_1597
*344 FILLER_0_1609
*345 FILLER_0_1621
*346 FILLER_0_1625
*347 FILLER_0_1637
*348 FILLER_0_1649
*349 FILLER_0_165
*350 FILLER_0_1653
*351 FILLER_0_1662
*352 FILLER_0_1674
*353 FILLER_0_1681
*354 FILLER_0_169
*355 FILLER_0_1693
*356 FILLER_0_1705
*357 FILLER_0_1709
*358 FILLER_0_1721
*359 FILLER_0_1733
*360 FILLER_0_1737
*361 FILLER_0_1744
*362 FILLER_0_1756
*363 FILLER_0_1765
*364 FILLER_0_1777
*365 FILLER_0_1789
*366 FILLER_0_1793
*367 FILLER_0_1805
*368 FILLER_0_181
*369 FILLER_0_1817
*370 FILLER_0_1821
*371 FILLER_0_1833
*372 FILLER_0_1845
*373 FILLER_0_1849
*374 FILLER_0_1861
*375 FILLER_0_1873
*376 FILLER_0_1877
*377 FILLER_0_1889
*378 FILLER_0_1901
*379 FILLER_0_1905
*380 FILLER_0_1917
*381 FILLER_0_193
*382 FILLER_0_200
*383 FILLER_0_212
*384 FILLER_0_225
*385 FILLER_0_237
*386 FILLER_0_249
*387 FILLER_0_253
*388 FILLER_0_265
*389 FILLER_0_27
*390 FILLER_0_276
*391 FILLER_0_281
*392 FILLER_0_29
*393 FILLER_0_293
*394 FILLER_0_3
*395 FILLER_0_305
*396 FILLER_0_309
*397 FILLER_0_321
*398 FILLER_0_333
*399 FILLER_0_337
*400 FILLER_0_349
*401 FILLER_0_361
*402 FILLER_0_365
*403 FILLER_0_377
*404 FILLER_0_389
*405 FILLER_0_393
*406 FILLER_0_405
*407 FILLER_0_41
*408 FILLER_0_417
*409 FILLER_0_421
*410 FILLER_0_433
*411 FILLER_0_439
*412 FILLER_0_447
*413 FILLER_0_449
*414 FILLER_0_461
*415 FILLER_0_473
*416 FILLER_0_477
*417 FILLER_0_489
*418 FILLER_0_501
*419 FILLER_0_505
*420 FILLER_0_517
*421 FILLER_0_521
*422 FILLER_0_529
*423 FILLER_0_53
*424 FILLER_0_533
*425 FILLER_0_545
*426 FILLER_0_557
*427 FILLER_0_561
*428 FILLER_0_57
*429 FILLER_0_573
*430 FILLER_0_585
*431 FILLER_0_589
*432 FILLER_0_601
*433 FILLER_0_613
*434 FILLER_0_617
*435 FILLER_0_629
*436 FILLER_0_641
*437 FILLER_0_645
*438 FILLER_0_657
*439 FILLER_0_669
*440 FILLER_0_673
*441 FILLER_0_684
*442 FILLER_0_69
*443 FILLER_0_696
*444 FILLER_0_701
*445 FILLER_0_713
*446 FILLER_0_725
*447 FILLER_0_729
*448 FILLER_0_741
*449 FILLER_0_753
*450 FILLER_0_757
*451 FILLER_0_769
*452 FILLER_0_781
*453 FILLER_0_785
*454 FILLER_0_797
*455 FILLER_0_809
*456 FILLER_0_81
*457 FILLER_0_813
*458 FILLER_0_825
*459 FILLER_0_837
*460 FILLER_0_841
*461 FILLER_0_85
*462 FILLER_0_853
*463 FILLER_0_865
*464 FILLER_0_869
*465 FILLER_0_881
*466 FILLER_0_893
*467 FILLER_0_897
*468 FILLER_0_909
*469 FILLER_0_921
*470 FILLER_0_925
*471 FILLER_0_937
*472 FILLER_0_949
*473 FILLER_0_953
*474 FILLER_0_965
*475 FILLER_0_97
*476 FILLER_0_977
*477 FILLER_0_981
*478 FILLER_0_993
*479 FILLER_100_1005
*480 FILLER_100_1017
*481 FILLER_100_1029
*482 FILLER_100_1035
*483 FILLER_100_1037
*484 FILLER_100_1049
*485 FILLER_100_1061
*486 FILLER_100_1073
*487 FILLER_100_1085
*488 FILLER_100_109
*489 FILLER_100_1091
*490 FILLER_100_1093
*491 FILLER_100_1105
*492 FILLER_100_1117
*493 FILLER_100_1129
*494 FILLER_100_1141
*495 FILLER_100_1147
*496 FILLER_100_1149
*497 FILLER_100_1161
*498 FILLER_100_1173
*499 FILLER_100_1185
*500 FILLER_100_1197
*501 FILLER_100_1203
*502 FILLER_100_1205
*503 FILLER_100_121
*504 FILLER_100_1217
*505 FILLER_100_1229
*506 FILLER_100_1241
*507 FILLER_100_1253
*508 FILLER_100_1259
*509 FILLER_100_1261
*510 FILLER_100_1273
*511 FILLER_100_1285
*512 FILLER_100_1297
*513 FILLER_100_1309
*514 FILLER_100_1315
*515 FILLER_100_1317
*516 FILLER_100_1329
*517 FILLER_100_133
*518 FILLER_100_1341
*519 FILLER_100_1353
*520 FILLER_100_1365
*521 FILLER_100_1371
*522 FILLER_100_1373
*523 FILLER_100_1385
*524 FILLER_100_139
*525 FILLER_100_1397
*526 FILLER_100_1409
*527 FILLER_100_141
*528 FILLER_100_1421
*529 FILLER_100_1427
*530 FILLER_100_1429
*531 FILLER_100_1441
*532 FILLER_100_1453
*533 FILLER_100_1465
*534 FILLER_100_1477
*535 FILLER_100_1483
*536 FILLER_100_1485
*537 FILLER_100_1497
*538 FILLER_100_15
*539 FILLER_100_1509
*540 FILLER_100_1521
*541 FILLER_100_153
*542 FILLER_100_1533
*543 FILLER_100_1539
*544 FILLER_100_1541
*545 FILLER_100_1553
*546 FILLER_100_1565
*547 FILLER_100_1577
*548 FILLER_100_1589
*549 FILLER_100_1595
*550 FILLER_100_1597
*551 FILLER_100_1609
*552 FILLER_100_1621
*553 FILLER_100_1633
*554 FILLER_100_1645
*555 FILLER_100_165
*556 FILLER_100_1651
*557 FILLER_100_1653
*558 FILLER_100_1665
*559 FILLER_100_1677
*560 FILLER_100_1689
*561 FILLER_100_1701
*562 FILLER_100_1707
*563 FILLER_100_1709
*564 FILLER_100_1721
*565 FILLER_100_1733
*566 FILLER_100_1745
*567 FILLER_100_1757
*568 FILLER_100_1763
*569 FILLER_100_1765
*570 FILLER_100_177
*571 FILLER_100_1777
*572 FILLER_100_1789
*573 FILLER_100_1801
*574 FILLER_100_1813
*575 FILLER_100_1819
*576 FILLER_100_1821
*577 FILLER_100_1833
*578 FILLER_100_1845
*579 FILLER_100_1857
*580 FILLER_100_1869
*581 FILLER_100_1875
*582 FILLER_100_1877
*583 FILLER_100_1889
*584 FILLER_100_189
*585 FILLER_100_1901
*586 FILLER_100_1913
*587 FILLER_100_1925
*588 FILLER_100_195
*589 FILLER_100_197
*590 FILLER_100_209
*591 FILLER_100_221
*592 FILLER_100_233
*593 FILLER_100_245
*594 FILLER_100_251
*595 FILLER_100_253
*596 FILLER_100_265
*597 FILLER_100_27
*598 FILLER_100_277
*599 FILLER_100_289
*600 FILLER_100_29
*601 FILLER_100_3
*602 FILLER_100_301
*603 FILLER_100_307
*604 FILLER_100_309
*605 FILLER_100_321
*606 FILLER_100_333
*607 FILLER_100_345
*608 FILLER_100_357
*609 FILLER_100_363
*610 FILLER_100_365
*611 FILLER_100_377
*612 FILLER_100_389
*613 FILLER_100_401
*614 FILLER_100_41
*615 FILLER_100_413
*616 FILLER_100_419
*617 FILLER_100_421
*618 FILLER_100_433
*619 FILLER_100_445
*620 FILLER_100_457
*621 FILLER_100_469
*622 FILLER_100_475
*623 FILLER_100_477
*624 FILLER_100_489
*625 FILLER_100_501
*626 FILLER_100_513
*627 FILLER_100_525
*628 FILLER_100_53
*629 FILLER_100_531
*630 FILLER_100_533
*631 FILLER_100_545
*632 FILLER_100_557
*633 FILLER_100_569
*634 FILLER_100_581
*635 FILLER_100_587
*636 FILLER_100_589
*637 FILLER_100_601
*638 FILLER_100_613
*639 FILLER_100_625
*640 FILLER_100_637
*641 FILLER_100_643
*642 FILLER_100_645
*643 FILLER_100_65
*644 FILLER_100_657
*645 FILLER_100_669
*646 FILLER_100_681
*647 FILLER_100_693
*648 FILLER_100_699
*649 FILLER_100_701
*650 FILLER_100_713
*651 FILLER_100_725
*652 FILLER_100_737
*653 FILLER_100_749
*654 FILLER_100_755
*655 FILLER_100_757
*656 FILLER_100_769
*657 FILLER_100_77
*658 FILLER_100_781
*659 FILLER_100_793
*660 FILLER_100_805
*661 FILLER_100_811
*662 FILLER_100_813
*663 FILLER_100_825
*664 FILLER_100_83
*665 FILLER_100_837
*666 FILLER_100_849
*667 FILLER_100_85
*668 FILLER_100_861
*669 FILLER_100_867
*670 FILLER_100_869
*671 FILLER_100_881
*672 FILLER_100_893
*673 FILLER_100_905
*674 FILLER_100_917
*675 FILLER_100_923
*676 FILLER_100_925
*677 FILLER_100_937
*678 FILLER_100_949
*679 FILLER_100_961
*680 FILLER_100_97
*681 FILLER_100_973
*682 FILLER_100_979
*683 FILLER_100_981
*684 FILLER_100_993
*685 FILLER_101_1001
*686 FILLER_101_1007
*687 FILLER_101_1009
*688 FILLER_101_1021
*689 FILLER_101_1033
*690 FILLER_101_1045
*691 FILLER_101_105
*692 FILLER_101_1057
*693 FILLER_101_1063
*694 FILLER_101_1065
*695 FILLER_101_1077
*696 FILLER_101_1089
*697 FILLER_101_1101
*698 FILLER_101_111
*699 FILLER_101_1113
*700 FILLER_101_1119
*701 FILLER_101_1121
*702 FILLER_101_113
*703 FILLER_101_1133
*704 FILLER_101_1145
*705 FILLER_101_1157
*706 FILLER_101_1169
*707 FILLER_101_1175
*708 FILLER_101_1177
*709 FILLER_101_1189
*710 FILLER_101_1201
*711 FILLER_101_1213
*712 FILLER_101_1225
*713 FILLER_101_1231
*714 FILLER_101_1233
*715 FILLER_101_1245
*716 FILLER_101_125
*717 FILLER_101_1257
*718 FILLER_101_1269
*719 FILLER_101_1281
*720 FILLER_101_1287
*721 FILLER_101_1289
*722 FILLER_101_1301
*723 FILLER_101_1313
*724 FILLER_101_1325
*725 FILLER_101_1337
*726 FILLER_101_1343
*727 FILLER_101_1345
*728 FILLER_101_1357
*729 FILLER_101_1369
*730 FILLER_101_137
*731 FILLER_101_1381
*732 FILLER_101_1393
*733 FILLER_101_1399
*734 FILLER_101_1401
*735 FILLER_101_1413
*736 FILLER_101_1425
*737 FILLER_101_1437
*738 FILLER_101_1449
*739 FILLER_101_1455
*740 FILLER_101_1457
*741 FILLER_101_1469
*742 FILLER_101_1481
*743 FILLER_101_149
*744 FILLER_101_1493
*745 FILLER_101_15
*746 FILLER_101_1505
*747 FILLER_101_1511
*748 FILLER_101_1513
*749 FILLER_101_1525
*750 FILLER_101_1537
*751 FILLER_101_1549
*752 FILLER_101_1561
*753 FILLER_101_1567
*754 FILLER_101_1569
*755 FILLER_101_1581
*756 FILLER_101_1593
*757 FILLER_101_1605
*758 FILLER_101_161
*759 FILLER_101_1617
*760 FILLER_101_1623
*761 FILLER_101_1625
*762 FILLER_101_1637
*763 FILLER_101_1649
*764 FILLER_101_1661
*765 FILLER_101_167
*766 FILLER_101_1673
*767 FILLER_101_1679
*768 FILLER_101_1681
*769 FILLER_101_169
*770 FILLER_101_1693
*771 FILLER_101_1705
*772 FILLER_101_1717
*773 FILLER_101_1729
*774 FILLER_101_1735
*775 FILLER_101_1737
*776 FILLER_101_1749
*777 FILLER_101_1761
*778 FILLER_101_1773
*779 FILLER_101_1785
*780 FILLER_101_1791
*781 FILLER_101_1793
*782 FILLER_101_1805
*783 FILLER_101_181
*784 FILLER_101_1817
*785 FILLER_101_1829
*786 FILLER_101_1841
*787 FILLER_101_1847
*788 FILLER_101_1849
*789 FILLER_101_1861
*790 FILLER_101_1873
*791 FILLER_101_1885
*792 FILLER_101_1897
*793 FILLER_101_1903
*794 FILLER_101_1905
*795 FILLER_101_1917
*796 FILLER_101_193
*797 FILLER_101_205
*798 FILLER_101_217
*799 FILLER_101_223
*800 FILLER_101_225
*801 FILLER_101_237
*802 FILLER_101_249
*803 FILLER_101_261
*804 FILLER_101_27
*805 FILLER_101_273
*806 FILLER_101_279
*807 FILLER_101_281
*808 FILLER_101_293
*809 FILLER_101_3
*810 FILLER_101_305
*811 FILLER_101_317
*812 FILLER_101_329
*813 FILLER_101_335
*814 FILLER_101_337
*815 FILLER_101_349
*816 FILLER_101_361
*817 FILLER_101_373
*818 FILLER_101_385
*819 FILLER_101_39
*820 FILLER_101_391
*821 FILLER_101_393
*822 FILLER_101_405
*823 FILLER_101_417
*824 FILLER_101_429
*825 FILLER_101_441
*826 FILLER_101_447
*827 FILLER_101_449
*828 FILLER_101_461
*829 FILLER_101_473
*830 FILLER_101_485
*831 FILLER_101_497
*832 FILLER_101_503
*833 FILLER_101_505
*834 FILLER_101_51
*835 FILLER_101_517
*836 FILLER_101_529
*837 FILLER_101_541
*838 FILLER_101_55
*839 FILLER_101_553
*840 FILLER_101_559
*841 FILLER_101_561
*842 FILLER_101_57
*843 FILLER_101_573
*844 FILLER_101_585
*845 FILLER_101_597
*846 FILLER_101_609
*847 FILLER_101_615
*848 FILLER_101_617
*849 FILLER_101_629
*850 FILLER_101_641
*851 FILLER_101_653
*852 FILLER_101_665
*853 FILLER_101_671
*854 FILLER_101_673
*855 FILLER_101_685
*856 FILLER_101_69
*857 FILLER_101_697
*858 FILLER_101_709
*859 FILLER_101_721
*860 FILLER_101_727
*861 FILLER_101_729
*862 FILLER_101_741
*863 FILLER_101_753
*864 FILLER_101_765
*865 FILLER_101_777
*866 FILLER_101_783
*867 FILLER_101_785
*868 FILLER_101_797
*869 FILLER_101_809
*870 FILLER_101_81
*871 FILLER_101_821
*872 FILLER_101_833
*873 FILLER_101_839
*874 FILLER_101_841
*875 FILLER_101_853
*876 FILLER_101_865
*877 FILLER_101_877
*878 FILLER_101_889
*879 FILLER_101_895
*880 FILLER_101_897
*881 FILLER_101_909
*882 FILLER_101_921
*883 FILLER_101_93
*884 FILLER_101_933
*885 FILLER_101_945
*886 FILLER_101_951
*887 FILLER_101_953
*888 FILLER_101_965
*889 FILLER_101_977
*890 FILLER_101_989
*891 FILLER_102_1005
*892 FILLER_102_1017
*893 FILLER_102_1029
*894 FILLER_102_1035
*895 FILLER_102_1037
*896 FILLER_102_1049
*897 FILLER_102_1061
*898 FILLER_102_1073
*899 FILLER_102_1085
*900 FILLER_102_109
*901 FILLER_102_1091
*902 FILLER_102_1093
*903 FILLER_102_1105
*904 FILLER_102_1117
*905 FILLER_102_1129
*906 FILLER_102_1141
*907 FILLER_102_1147
*908 FILLER_102_1149
*909 FILLER_102_1161
*910 FILLER_102_1173
*911 FILLER_102_1185
*912 FILLER_102_1197
*913 FILLER_102_1203
*914 FILLER_102_1205
*915 FILLER_102_121
*916 FILLER_102_1217
*917 FILLER_102_1229
*918 FILLER_102_1241
*919 FILLER_102_1253
*920 FILLER_102_1259
*921 FILLER_102_1261
*922 FILLER_102_1273
*923 FILLER_102_1285
*924 FILLER_102_1297
*925 FILLER_102_1309
*926 FILLER_102_1315
*927 FILLER_102_1317
*928 FILLER_102_1329
*929 FILLER_102_133
*930 FILLER_102_1341
*931 FILLER_102_1353
*932 FILLER_102_1365
*933 FILLER_102_1371
*934 FILLER_102_1373
*935 FILLER_102_1385
*936 FILLER_102_139
*937 FILLER_102_1397
*938 FILLER_102_1409
*939 FILLER_102_141
*940 FILLER_102_1421
*941 FILLER_102_1427
*942 FILLER_102_1429
*943 FILLER_102_1441
*944 FILLER_102_1453
*945 FILLER_102_1465
*946 FILLER_102_1477
*947 FILLER_102_1483
*948 FILLER_102_1485
*949 FILLER_102_1497
*950 FILLER_102_15
*951 FILLER_102_1509
*952 FILLER_102_1521
*953 FILLER_102_153
*954 FILLER_102_1533
*955 FILLER_102_1539
*956 FILLER_102_1541
*957 FILLER_102_1553
*958 FILLER_102_1565
*959 FILLER_102_1577
*960 FILLER_102_1589
*961 FILLER_102_1595
*962 FILLER_102_1597
*963 FILLER_102_1609
*964 FILLER_102_1621
*965 FILLER_102_1633
*966 FILLER_102_1645
*967 FILLER_102_165
*968 FILLER_102_1651
*969 FILLER_102_1653
*970 FILLER_102_1665
*971 FILLER_102_1677
*972 FILLER_102_1689
*973 FILLER_102_1701
*974 FILLER_102_1707
*975 FILLER_102_1709
*976 FILLER_102_1721
*977 FILLER_102_1733
*978 FILLER_102_1745
*979 FILLER_102_1757
*980 FILLER_102_1763
*981 FILLER_102_1765
*982 FILLER_102_177
*983 FILLER_102_1777
*984 FILLER_102_1789
*985 FILLER_102_1801
*986 FILLER_102_1813
*987 FILLER_102_1819
*988 FILLER_102_1821
*989 FILLER_102_1833
*990 FILLER_102_1845
*991 FILLER_102_1857
*992 FILLER_102_1869
*993 FILLER_102_1875
*994 FILLER_102_1877
*995 FILLER_102_1889
*996 FILLER_102_189
*997 FILLER_102_1901
*998 FILLER_102_1913
*999 FILLER_102_1925
*1000 FILLER_102_195
*1001 FILLER_102_197
*1002 FILLER_102_209
*1003 FILLER_102_221
*1004 FILLER_102_233
*1005 FILLER_102_245
*1006 FILLER_102_251
*1007 FILLER_102_253
*1008 FILLER_102_265
*1009 FILLER_102_27
*1010 FILLER_102_277
*1011 FILLER_102_289
*1012 FILLER_102_29
*1013 FILLER_102_3
*1014 FILLER_102_301
*1015 FILLER_102_307
*1016 FILLER_102_309
*1017 FILLER_102_321
*1018 FILLER_102_333
*1019 FILLER_102_345
*1020 FILLER_102_357
*1021 FILLER_102_363
*1022 FILLER_102_365
*1023 FILLER_102_377
*1024 FILLER_102_389
*1025 FILLER_102_401
*1026 FILLER_102_41
*1027 FILLER_102_413
*1028 FILLER_102_419
*1029 FILLER_102_421
*1030 FILLER_102_433
*1031 FILLER_102_445
*1032 FILLER_102_457
*1033 FILLER_102_469
*1034 FILLER_102_475
*1035 FILLER_102_477
*1036 FILLER_102_489
*1037 FILLER_102_501
*1038 FILLER_102_513
*1039 FILLER_102_525
*1040 FILLER_102_53
*1041 FILLER_102_531
*1042 FILLER_102_533
*1043 FILLER_102_545
*1044 FILLER_102_557
*1045 FILLER_102_569
*1046 FILLER_102_581
*1047 FILLER_102_587
*1048 FILLER_102_589
*1049 FILLER_102_601
*1050 FILLER_102_613
*1051 FILLER_102_625
*1052 FILLER_102_637
*1053 FILLER_102_643
*1054 FILLER_102_645
*1055 FILLER_102_65
*1056 FILLER_102_657
*1057 FILLER_102_669
*1058 FILLER_102_681
*1059 FILLER_102_693
*1060 FILLER_102_699
*1061 FILLER_102_701
*1062 FILLER_102_713
*1063 FILLER_102_725
*1064 FILLER_102_737
*1065 FILLER_102_749
*1066 FILLER_102_755
*1067 FILLER_102_757
*1068 FILLER_102_769
*1069 FILLER_102_77
*1070 FILLER_102_781
*1071 FILLER_102_793
*1072 FILLER_102_805
*1073 FILLER_102_811
*1074 FILLER_102_813
*1075 FILLER_102_825
*1076 FILLER_102_83
*1077 FILLER_102_837
*1078 FILLER_102_849
*1079 FILLER_102_85
*1080 FILLER_102_861
*1081 FILLER_102_867
*1082 FILLER_102_869
*1083 FILLER_102_881
*1084 FILLER_102_893
*1085 FILLER_102_905
*1086 FILLER_102_917
*1087 FILLER_102_923
*1088 FILLER_102_925
*1089 FILLER_102_937
*1090 FILLER_102_949
*1091 FILLER_102_961
*1092 FILLER_102_97
*1093 FILLER_102_973
*1094 FILLER_102_979
*1095 FILLER_102_981
*1096 FILLER_102_993
*1097 FILLER_103_1001
*1098 FILLER_103_1007
*1099 FILLER_103_1009
*1100 FILLER_103_1021
*1101 FILLER_103_1033
*1102 FILLER_103_1045
*1103 FILLER_103_105
*1104 FILLER_103_1057
*1105 FILLER_103_1063
*1106 FILLER_103_1065
*1107 FILLER_103_1077
*1108 FILLER_103_1089
*1109 FILLER_103_1101
*1110 FILLER_103_111
*1111 FILLER_103_1113
*1112 FILLER_103_1119
*1113 FILLER_103_1121
*1114 FILLER_103_113
*1115 FILLER_103_1133
*1116 FILLER_103_1145
*1117 FILLER_103_1157
*1118 FILLER_103_1169
*1119 FILLER_103_1175
*1120 FILLER_103_1177
*1121 FILLER_103_1189
*1122 FILLER_103_1201
*1123 FILLER_103_1213
*1124 FILLER_103_1225
*1125 FILLER_103_1231
*1126 FILLER_103_1233
*1127 FILLER_103_1245
*1128 FILLER_103_125
*1129 FILLER_103_1257
*1130 FILLER_103_1269
*1131 FILLER_103_1281
*1132 FILLER_103_1287
*1133 FILLER_103_1289
*1134 FILLER_103_1301
*1135 FILLER_103_1313
*1136 FILLER_103_1325
*1137 FILLER_103_1337
*1138 FILLER_103_1343
*1139 FILLER_103_1345
*1140 FILLER_103_1357
*1141 FILLER_103_1369
*1142 FILLER_103_137
*1143 FILLER_103_1381
*1144 FILLER_103_1393
*1145 FILLER_103_1399
*1146 FILLER_103_1401
*1147 FILLER_103_1413
*1148 FILLER_103_1425
*1149 FILLER_103_1437
*1150 FILLER_103_1449
*1151 FILLER_103_1455
*1152 FILLER_103_1457
*1153 FILLER_103_1469
*1154 FILLER_103_1481
*1155 FILLER_103_149
*1156 FILLER_103_1493
*1157 FILLER_103_15
*1158 FILLER_103_1505
*1159 FILLER_103_1511
*1160 FILLER_103_1513
*1161 FILLER_103_1525
*1162 FILLER_103_1537
*1163 FILLER_103_1549
*1164 FILLER_103_1561
*1165 FILLER_103_1567
*1166 FILLER_103_1569
*1167 FILLER_103_1581
*1168 FILLER_103_1593
*1169 FILLER_103_1605
*1170 FILLER_103_161
*1171 FILLER_103_1617
*1172 FILLER_103_1623
*1173 FILLER_103_1625
*1174 FILLER_103_1637
*1175 FILLER_103_1649
*1176 FILLER_103_1661
*1177 FILLER_103_167
*1178 FILLER_103_1673
*1179 FILLER_103_1679
*1180 FILLER_103_1681
*1181 FILLER_103_169
*1182 FILLER_103_1693
*1183 FILLER_103_1705
*1184 FILLER_103_1717
*1185 FILLER_103_1729
*1186 FILLER_103_1735
*1187 FILLER_103_1737
*1188 FILLER_103_1749
*1189 FILLER_103_1761
*1190 FILLER_103_1773
*1191 FILLER_103_1785
*1192 FILLER_103_1791
*1193 FILLER_103_1793
*1194 FILLER_103_1805
*1195 FILLER_103_181
*1196 FILLER_103_1817
*1197 FILLER_103_1829
*1198 FILLER_103_1841
*1199 FILLER_103_1847
*1200 FILLER_103_1849
*1201 FILLER_103_1861
*1202 FILLER_103_1873
*1203 FILLER_103_1885
*1204 FILLER_103_1897
*1205 FILLER_103_1903
*1206 FILLER_103_1905
*1207 FILLER_103_1917
*1208 FILLER_103_193
*1209 FILLER_103_205
*1210 FILLER_103_217
*1211 FILLER_103_223
*1212 FILLER_103_225
*1213 FILLER_103_237
*1214 FILLER_103_249
*1215 FILLER_103_261
*1216 FILLER_103_27
*1217 FILLER_103_273
*1218 FILLER_103_279
*1219 FILLER_103_281
*1220 FILLER_103_293
*1221 FILLER_103_3
*1222 FILLER_103_305
*1223 FILLER_103_317
*1224 FILLER_103_329
*1225 FILLER_103_335
*1226 FILLER_103_337
*1227 FILLER_103_349
*1228 FILLER_103_361
*1229 FILLER_103_373
*1230 FILLER_103_385
*1231 FILLER_103_39
*1232 FILLER_103_391
*1233 FILLER_103_393
*1234 FILLER_103_405
*1235 FILLER_103_417
*1236 FILLER_103_429
*1237 FILLER_103_441
*1238 FILLER_103_447
*1239 FILLER_103_449
*1240 FILLER_103_461
*1241 FILLER_103_473
*1242 FILLER_103_485
*1243 FILLER_103_497
*1244 FILLER_103_503
*1245 FILLER_103_505
*1246 FILLER_103_51
*1247 FILLER_103_517
*1248 FILLER_103_529
*1249 FILLER_103_541
*1250 FILLER_103_55
*1251 FILLER_103_553
*1252 FILLER_103_559
*1253 FILLER_103_561
*1254 FILLER_103_57
*1255 FILLER_103_573
*1256 FILLER_103_585
*1257 FILLER_103_597
*1258 FILLER_103_609
*1259 FILLER_103_615
*1260 FILLER_103_617
*1261 FILLER_103_629
*1262 FILLER_103_641
*1263 FILLER_103_653
*1264 FILLER_103_665
*1265 FILLER_103_671
*1266 FILLER_103_673
*1267 FILLER_103_685
*1268 FILLER_103_69
*1269 FILLER_103_697
*1270 FILLER_103_709
*1271 FILLER_103_721
*1272 FILLER_103_727
*1273 FILLER_103_729
*1274 FILLER_103_741
*1275 FILLER_103_753
*1276 FILLER_103_765
*1277 FILLER_103_777
*1278 FILLER_103_783
*1279 FILLER_103_785
*1280 FILLER_103_797
*1281 FILLER_103_809
*1282 FILLER_103_81
*1283 FILLER_103_821
*1284 FILLER_103_833
*1285 FILLER_103_839
*1286 FILLER_103_841
*1287 FILLER_103_853
*1288 FILLER_103_865
*1289 FILLER_103_877
*1290 FILLER_103_889
*1291 FILLER_103_895
*1292 FILLER_103_897
*1293 FILLER_103_909
*1294 FILLER_103_921
*1295 FILLER_103_93
*1296 FILLER_103_933
*1297 FILLER_103_945
*1298 FILLER_103_951
*1299 FILLER_103_953
*1300 FILLER_103_965
*1301 FILLER_103_977
*1302 FILLER_103_989
*1303 FILLER_104_1005
*1304 FILLER_104_1017
*1305 FILLER_104_1029
*1306 FILLER_104_1035
*1307 FILLER_104_1037
*1308 FILLER_104_1049
*1309 FILLER_104_1061
*1310 FILLER_104_1073
*1311 FILLER_104_1085
*1312 FILLER_104_109
*1313 FILLER_104_1091
*1314 FILLER_104_1093
*1315 FILLER_104_1105
*1316 FILLER_104_1117
*1317 FILLER_104_1129
*1318 FILLER_104_1141
*1319 FILLER_104_1147
*1320 FILLER_104_1149
*1321 FILLER_104_1161
*1322 FILLER_104_1173
*1323 FILLER_104_1185
*1324 FILLER_104_1197
*1325 FILLER_104_1203
*1326 FILLER_104_1205
*1327 FILLER_104_121
*1328 FILLER_104_1217
*1329 FILLER_104_1229
*1330 FILLER_104_1241
*1331 FILLER_104_1253
*1332 FILLER_104_1259
*1333 FILLER_104_1261
*1334 FILLER_104_1273
*1335 FILLER_104_1285
*1336 FILLER_104_1297
*1337 FILLER_104_1309
*1338 FILLER_104_1315
*1339 FILLER_104_1317
*1340 FILLER_104_1329
*1341 FILLER_104_133
*1342 FILLER_104_1341
*1343 FILLER_104_1353
*1344 FILLER_104_1365
*1345 FILLER_104_1371
*1346 FILLER_104_1373
*1347 FILLER_104_1385
*1348 FILLER_104_139
*1349 FILLER_104_1397
*1350 FILLER_104_1409
*1351 FILLER_104_141
*1352 FILLER_104_1421
*1353 FILLER_104_1427
*1354 FILLER_104_1429
*1355 FILLER_104_1441
*1356 FILLER_104_1453
*1357 FILLER_104_1465
*1358 FILLER_104_1477
*1359 FILLER_104_1483
*1360 FILLER_104_1485
*1361 FILLER_104_1497
*1362 FILLER_104_15
*1363 FILLER_104_1509
*1364 FILLER_104_1521
*1365 FILLER_104_153
*1366 FILLER_104_1533
*1367 FILLER_104_1539
*1368 FILLER_104_1541
*1369 FILLER_104_1553
*1370 FILLER_104_1565
*1371 FILLER_104_1577
*1372 FILLER_104_1589
*1373 FILLER_104_1595
*1374 FILLER_104_1597
*1375 FILLER_104_1609
*1376 FILLER_104_1621
*1377 FILLER_104_1633
*1378 FILLER_104_1645
*1379 FILLER_104_165
*1380 FILLER_104_1651
*1381 FILLER_104_1653
*1382 FILLER_104_1665
*1383 FILLER_104_1677
*1384 FILLER_104_1689
*1385 FILLER_104_1701
*1386 FILLER_104_1707
*1387 FILLER_104_1709
*1388 FILLER_104_1721
*1389 FILLER_104_1733
*1390 FILLER_104_1745
*1391 FILLER_104_1757
*1392 FILLER_104_1763
*1393 FILLER_104_1765
*1394 FILLER_104_177
*1395 FILLER_104_1777
*1396 FILLER_104_1789
*1397 FILLER_104_1801
*1398 FILLER_104_1813
*1399 FILLER_104_1819
*1400 FILLER_104_1821
*1401 FILLER_104_1833
*1402 FILLER_104_1845
*1403 FILLER_104_1857
*1404 FILLER_104_1869
*1405 FILLER_104_1875
*1406 FILLER_104_1877
*1407 FILLER_104_1889
*1408 FILLER_104_189
*1409 FILLER_104_1901
*1410 FILLER_104_1913
*1411 FILLER_104_1925
*1412 FILLER_104_195
*1413 FILLER_104_197
*1414 FILLER_104_209
*1415 FILLER_104_221
*1416 FILLER_104_233
*1417 FILLER_104_245
*1418 FILLER_104_251
*1419 FILLER_104_253
*1420 FILLER_104_265
*1421 FILLER_104_27
*1422 FILLER_104_277
*1423 FILLER_104_289
*1424 FILLER_104_29
*1425 FILLER_104_3
*1426 FILLER_104_301
*1427 FILLER_104_307
*1428 FILLER_104_309
*1429 FILLER_104_321
*1430 FILLER_104_333
*1431 FILLER_104_345
*1432 FILLER_104_357
*1433 FILLER_104_363
*1434 FILLER_104_365
*1435 FILLER_104_377
*1436 FILLER_104_389
*1437 FILLER_104_401
*1438 FILLER_104_41
*1439 FILLER_104_413
*1440 FILLER_104_419
*1441 FILLER_104_421
*1442 FILLER_104_433
*1443 FILLER_104_445
*1444 FILLER_104_457
*1445 FILLER_104_469
*1446 FILLER_104_475
*1447 FILLER_104_477
*1448 FILLER_104_489
*1449 FILLER_104_501
*1450 FILLER_104_513
*1451 FILLER_104_525
*1452 FILLER_104_53
*1453 FILLER_104_531
*1454 FILLER_104_533
*1455 FILLER_104_545
*1456 FILLER_104_557
*1457 FILLER_104_569
*1458 FILLER_104_581
*1459 FILLER_104_587
*1460 FILLER_104_589
*1461 FILLER_104_601
*1462 FILLER_104_613
*1463 FILLER_104_625
*1464 FILLER_104_637
*1465 FILLER_104_643
*1466 FILLER_104_645
*1467 FILLER_104_65
*1468 FILLER_104_657
*1469 FILLER_104_669
*1470 FILLER_104_681
*1471 FILLER_104_693
*1472 FILLER_104_699
*1473 FILLER_104_701
*1474 FILLER_104_713
*1475 FILLER_104_725
*1476 FILLER_104_737
*1477 FILLER_104_749
*1478 FILLER_104_755
*1479 FILLER_104_757
*1480 FILLER_104_769
*1481 FILLER_104_77
*1482 FILLER_104_781
*1483 FILLER_104_793
*1484 FILLER_104_805
*1485 FILLER_104_811
*1486 FILLER_104_813
*1487 FILLER_104_825
*1488 FILLER_104_83
*1489 FILLER_104_837
*1490 FILLER_104_849
*1491 FILLER_104_85
*1492 FILLER_104_861
*1493 FILLER_104_867
*1494 FILLER_104_869
*1495 FILLER_104_881
*1496 FILLER_104_893
*1497 FILLER_104_905
*1498 FILLER_104_917
*1499 FILLER_104_923
*1500 FILLER_104_925
*1501 FILLER_104_937
*1502 FILLER_104_949
*1503 FILLER_104_961
*1504 FILLER_104_97
*1505 FILLER_104_973
*1506 FILLER_104_979
*1507 FILLER_104_981
*1508 FILLER_104_993
*1509 FILLER_105_1001
*1510 FILLER_105_1007
*1511 FILLER_105_1009
*1512 FILLER_105_1021
*1513 FILLER_105_1033
*1514 FILLER_105_1045
*1515 FILLER_105_105
*1516 FILLER_105_1057
*1517 FILLER_105_1063
*1518 FILLER_105_1065
*1519 FILLER_105_1077
*1520 FILLER_105_1089
*1521 FILLER_105_1101
*1522 FILLER_105_111
*1523 FILLER_105_1113
*1524 FILLER_105_1119
*1525 FILLER_105_1121
*1526 FILLER_105_113
*1527 FILLER_105_1133
*1528 FILLER_105_1145
*1529 FILLER_105_1157
*1530 FILLER_105_1169
*1531 FILLER_105_1175
*1532 FILLER_105_1177
*1533 FILLER_105_1189
*1534 FILLER_105_1201
*1535 FILLER_105_1213
*1536 FILLER_105_1225
*1537 FILLER_105_1231
*1538 FILLER_105_1233
*1539 FILLER_105_1245