*SPEF "ieee 1481-1999"
*DESIGN "natalius_soc"
*DATE "11:11:11 Fri 11 11, 1111"
*VENDOR "OpenRCX"
*PROGRAM "Parallel Extraction"
*VERSION "1.0"
*DESIGN_FLOW "NAME_SCOPE LOCAL" "PIN_CAP NONE"
*DIVIDER /
*DELIMITER :
*BUS_DELIMITER []
*T_UNIT 1 NS
*C_UNIT 1 PF
*R_UNIT 1 OHM
*L_UNIT 1 HENRY

*NAME_MAP
*1 addr0[0]
*2 addr0[10]
*3 addr0[11]
*4 addr0[1]
*5 addr0[2]
*6 addr0[3]
*7 addr0[4]
*8 addr0[5]
*9 addr0[6]
*10 addr0[7]
*11 addr0[8]
*12 addr0[9]
*13 net30
*14 clk
*15 din0[0]
*16 din0[10]
*17 din0[11]
*18 din0[12]
*19 din0[13]
*20 din0[14]
*21 din0[15]
*22 din0[1]
*23 din0[2]
*24 din0[3]
*25 din0[4]
*26 din0[5]
*27 din0[6]
*28 din0[7]
*29 din0[8]
*30 din0[9]
*31 din[0]
*32 din[1]
*33 din[2]
*34 din[3]
*35 din[4]
*36 din[5]
*37 din[6]
*38 din[7]
*39 net5
*40 net15
*41 net16
*42 net17
*43 net18
*44 net19
*45 net20
*46 net6
*47 net7
*48 net8
*49 net9
*50 net10
*51 net11
*52 net12
*53 net13
*54 net14
*55 net21
*56 net22
*57 net23
*58 net24
*59 net25
*60 net26
*61 net27
*62 net28
*63 net4
*64 hs
*65 net31
*66 net46
*67 net47
*68 net48
*69 net49
*70 net50
*71 net51
*72 net39
*73 net40
*74 net41
*75 net42
*76 net32
*77 net43
*78 net33
*79 net34
*80 net35
*81 net36
*82 net37
*83 net38
*84 net44
*85 net45
*86 net29
*87 rst
*89 vs
*91 wbs_cyc_i
*92 wbs_stb_i
*93 web
*94 wmask0[0]
*95 wmask0[1]
*96 _000_
*97 _001_
*98 _002_
*99 _003_
*100 _004_
*101 _005_
*102 _006_
*103 _007_
*104 _008_
*105 _009_
*106 _010_
*107 _011_
*108 _012_
*109 _013_
*110 _014_
*111 _015_
*112 _016_
*113 _017_
*114 _018_
*115 _019_
*116 _020_
*117 _021_
*118 _022_
*119 _023_
*120 _024_
*121 _025_
*122 _026_
*123 _027_
*124 _028_
*125 _029_
*126 _030_
*127 _031_
*128 _032_
*129 _033_
*130 _034_
*131 _035_
*132 _036_
*133 _037_
*134 _038_
*135 _039_
*136 _040_
*137 _041_
*138 _042_
*139 _043_
*140 _044_
*141 _045_
*142 _046_
*143 _047_
*144 _048_
*145 _049_
*146 _050_
*147 _051_
*148 _052_
*149 _053_
*150 _054_
*151 _055_
*152 _056_
*153 _057_
*154 _058_
*155 _059_
*156 _060_
*157 _061_
*158 _062_
*159 _063_
*160 _064_
*161 _065_
*162 _066_
*163 _067_
*164 _068_
*165 _069_
*166 _070_
*167 _071_
*168 _072_
*169 _073_
*170 _074_
*171 _075_
*172 _076_
*173 _077_
*174 _078_
*175 _079_
*176 _080_
*177 _081_
*178 _082_
*179 _083_
*180 _084_
*181 _085_
*182 _086_
*183 _087_
*184 _088_
*185 _089_
*186 _090_
*187 _091_
*188 _092_
*189 _093_
*190 _094_
*191 _095_
*192 _096_
*193 _097_
*194 _098_
*195 _099_
*196 _100_
*197 _101_
*198 _102_
*199 _103_
*200 _104_
*201 _105_
*202 clknet_0_clk
*203 clknet_1_0_0_clk
*204 clknet_1_1_0_clk
*205 net1
*206 net2
*207 net3
*208 video_cntrl\.addrb\[0\]
*209 video_cntrl\.addrb\[10\]
*210 video_cntrl\.addrb\[11\]
*211 video_cntrl\.addrb\[12\]
*212 video_cntrl\.addrb\[1\]
*213 video_cntrl\.addrb\[2\]
*214 video_cntrl\.addrb\[3\]
*215 video_cntrl\.addrb\[4\]
*216 video_cntrl\.addrb\[5\]
*217 video_cntrl\.addrb\[6\]
*218 video_cntrl\.addrb\[7\]
*219 video_cntrl\.addrb\[8\]
*220 video_cntrl\.addrb\[9\]
*221 video_cntrl\.clk25
*222 video_cntrl\.hcnt\[0\]
*223 video_cntrl\.hcnt\[1\]
*224 video_cntrl\.hcnt\[2\]
*225 video_cntrl\.hsync
*226 video_cntrl\.vcnt\[0\]
*227 video_cntrl\.vcnt\[1\]
*228 video_cntrl\.vcnt\[2\]
*229 video_cntrl\.vsync
*230 ANTENNA__184__A
*231 ANTENNA__208__A
*232 ANTENNA__209__A
*233 ANTENNA__210__A
*234 ANTENNA__211__A
*235 ANTENNA_clkbuf_0_clk_A
*236 ANTENNA_input1_A
*237 ANTENNA_output3_A
*238 FILLER_0_1005
*239 FILLER_0_1009
*240 FILLER_0_1014
*241 FILLER_0_1026
*242 FILLER_0_1034
*243 FILLER_0_1037
*244 FILLER_0_1049
*245 FILLER_0_1061
*246 FILLER_0_1065
*247 FILLER_0_1077
*248 FILLER_0_1089
*249 FILLER_0_109
*250 FILLER_0_1093
*251 FILLER_0_1105
*252 FILLER_0_1117
*253 FILLER_0_1121
*254 FILLER_0_113
*255 FILLER_0_1133
*256 FILLER_0_1145
*257 FILLER_0_1149
*258 FILLER_0_1161
*259 FILLER_0_1173
*260 FILLER_0_1177
*261 FILLER_0_1192
*262 FILLER_0_1205
*263 FILLER_0_1217
*264 FILLER_0_1229
*265 FILLER_0_1233
*266 FILLER_0_1245
*267 FILLER_0_125
*268 FILLER_0_1257
*269 FILLER_0_1261
*270 FILLER_0_1273
*271 FILLER_0_1285
*272 FILLER_0_1289
*273 FILLER_0_1301
*274 FILLER_0_1313
*275 FILLER_0_1317
*276 FILLER_0_1329
*277 FILLER_0_1341
*278 FILLER_0_1345
*279 FILLER_0_1357
*280 FILLER_0_1369
*281 FILLER_0_137
*282 FILLER_0_1373
*283 FILLER_0_1385
*284 FILLER_0_1397
*285 FILLER_0_1401
*286 FILLER_0_141
*287 FILLER_0_1413
*288 FILLER_0_1425
*289 FILLER_0_1429
*290 FILLER_0_1441
*291 FILLER_0_1453
*292 FILLER_0_1460
*293 FILLER_0_1472
*294 FILLER_0_1485
*295 FILLER_0_1497
*296 FILLER_0_15
*297 FILLER_0_1509
*298 FILLER_0_1513
*299 FILLER_0_1525
*300 FILLER_0_153
*301 FILLER_0_1537
*302 FILLER_0_1541
*303 FILLER_0_1548
*304 FILLER_0_1560
*305 FILLER_0_1569
*306 FILLER_0_1581
*307 FILLER_0_1593
*308 FILLER_0_1597
*309 FILLER_0_1609
*310 FILLER_0_1621
*311 FILLER_0_1625
*312 FILLER_0_1637
*313 FILLER_0_1649
*314 FILLER_0_165
*315 FILLER_0_1653
*316 FILLER_0_1665
*317 FILLER_0_1677
*318 FILLER_0_1681
*319 FILLER_0_169
*320 FILLER_0_1693
*321 FILLER_0_1705
*322 FILLER_0_1709
*323 FILLER_0_1721
*324 FILLER_0_1726
*325 FILLER_0_1734
*326 FILLER_0_1737
*327 FILLER_0_1749
*328 FILLER_0_1761
*329 FILLER_0_1765
*330 FILLER_0_1777
*331 FILLER_0_1789
*332 FILLER_0_1793
*333 FILLER_0_1805
*334 FILLER_0_181
*335 FILLER_0_1817
*336 FILLER_0_1821
*337 FILLER_0_1833
*338 FILLER_0_1845
*339 FILLER_0_1849
*340 FILLER_0_1861
*341 FILLER_0_1873
*342 FILLER_0_1877
*343 FILLER_0_1889
*344 FILLER_0_1901
*345 FILLER_0_1908
*346 FILLER_0_1920
*347 FILLER_0_1928
*348 FILLER_0_193
*349 FILLER_0_197
*350 FILLER_0_209
*351 FILLER_0_214
*352 FILLER_0_222
*353 FILLER_0_225
*354 FILLER_0_237
*355 FILLER_0_249
*356 FILLER_0_253
*357 FILLER_0_265
*358 FILLER_0_27
*359 FILLER_0_277
*360 FILLER_0_281
*361 FILLER_0_29
*362 FILLER_0_293
*363 FILLER_0_3
*364 FILLER_0_305
*365 FILLER_0_309
*366 FILLER_0_321
*367 FILLER_0_333
*368 FILLER_0_337
*369 FILLER_0_349
*370 FILLER_0_361
*371 FILLER_0_365
*372 FILLER_0_377
*373 FILLER_0_389
*374 FILLER_0_393
*375 FILLER_0_405
*376 FILLER_0_41
*377 FILLER_0_417
*378 FILLER_0_421
*379 FILLER_0_433
*380 FILLER_0_445
*381 FILLER_0_449
*382 FILLER_0_461
*383 FILLER_0_473
*384 FILLER_0_480
*385 FILLER_0_492
*386 FILLER_0_505
*387 FILLER_0_517
*388 FILLER_0_529
*389 FILLER_0_53
*390 FILLER_0_533
*391 FILLER_0_545
*392 FILLER_0_557
*393 FILLER_0_561
*394 FILLER_0_565
*395 FILLER_0_569
*396 FILLER_0_57
*397 FILLER_0_581
*398 FILLER_0_587
*399 FILLER_0_589
*400 FILLER_0_601
*401 FILLER_0_613
*402 FILLER_0_617
*403 FILLER_0_629
*404 FILLER_0_641
*405 FILLER_0_645
*406 FILLER_0_657
*407 FILLER_0_669
*408 FILLER_0_673
*409 FILLER_0_685
*410 FILLER_0_69
*411 FILLER_0_697
*412 FILLER_0_701
*413 FILLER_0_713
*414 FILLER_0_725
*415 FILLER_0_729
*416 FILLER_0_741
*417 FILLER_0_747
*418 FILLER_0_755
*419 FILLER_0_757
*420 FILLER_0_769
*421 FILLER_0_781
*422 FILLER_0_785
*423 FILLER_0_797
*424 FILLER_0_809
*425 FILLER_0_81
*426 FILLER_0_813
*427 FILLER_0_825
*428 FILLER_0_836
*429 FILLER_0_841
*430 FILLER_0_85
*431 FILLER_0_853
*432 FILLER_0_865
*433 FILLER_0_869
*434 FILLER_0_881
*435 FILLER_0_893
*436 FILLER_0_897
*437 FILLER_0_909
*438 FILLER_0_921
*439 FILLER_0_925
*440 FILLER_0_937
*441 FILLER_0_949
*442 FILLER_0_953
*443 FILLER_0_965
*444 FILLER_0_97
*445 FILLER_0_977
*446 FILLER_0_981
*447 FILLER_0_993
*448 FILLER_100_1005
*449 FILLER_100_1017
*450 FILLER_100_1029
*451 FILLER_100_1035
*452 FILLER_100_1037
*453 FILLER_100_1049
*454 FILLER_100_1061
*455 FILLER_100_1073
*456 FILLER_100_1085
*457 FILLER_100_109
*458 FILLER_100_1091
*459 FILLER_100_1093
*460 FILLER_100_1105
*461 FILLER_100_1117
*462 FILLER_100_1129
*463 FILLER_100_1141
*464 FILLER_100_1147
*465 FILLER_100_1149
*466 FILLER_100_1161
*467 FILLER_100_1173
*468 FILLER_100_1185
*469 FILLER_100_1197
*470 FILLER_100_1203
*471 FILLER_100_1205
*472 FILLER_100_121
*473 FILLER_100_1217
*474 FILLER_100_1229
*475 FILLER_100_1241
*476 FILLER_100_1253
*477 FILLER_100_1259
*478 FILLER_100_1261
*479 FILLER_100_1273
*480 FILLER_100_1285
*481 FILLER_100_1297
*482 FILLER_100_1309
*483 FILLER_100_1315
*484 FILLER_100_1317
*485 FILLER_100_1329
*486 FILLER_100_133
*487 FILLER_100_1341
*488 FILLER_100_1353
*489 FILLER_100_1365
*490 FILLER_100_1371
*491 FILLER_100_1373
*492 FILLER_100_1385
*493 FILLER_100_139
*494 FILLER_100_1397
*495 FILLER_100_1409
*496 FILLER_100_141
*497 FILLER_100_1421
*498 FILLER_100_1427
*499 FILLER_100_1429
*500 FILLER_100_1441
*501 FILLER_100_1453
*502 FILLER_100_1465
*503 FILLER_100_1477
*504 FILLER_100_1483
*505 FILLER_100_1485
*506 FILLER_100_1497
*507 FILLER_100_15
*508 FILLER_100_1509
*509 FILLER_100_1521
*510 FILLER_100_153
*511 FILLER_100_1533
*512 FILLER_100_1539
*513 FILLER_100_1541
*514 FILLER_100_1553
*515 FILLER_100_1565
*516 FILLER_100_1577
*517 FILLER_100_1589
*518 FILLER_100_1595
*519 FILLER_100_1597
*520 FILLER_100_1609
*521 FILLER_100_1621
*522 FILLER_100_1633
*523 FILLER_100_1645
*524 FILLER_100_165
*525 FILLER_100_1651
*526 FILLER_100_1653
*527 FILLER_100_1665
*528 FILLER_100_1677
*529 FILLER_100_1689
*530 FILLER_100_1701
*531 FILLER_100_1707
*532 FILLER_100_1709
*533 FILLER_100_1721
*534 FILLER_100_1733
*535 FILLER_100_1745
*536 FILLER_100_1757
*537 FILLER_100_1763
*538 FILLER_100_1765
*539 FILLER_100_177
*540 FILLER_100_1777
*541 FILLER_100_1789
*542 FILLER_100_1801
*543 FILLER_100_1813
*544 FILLER_100_1819
*545 FILLER_100_1821
*546 FILLER_100_1833
*547 FILLER_100_1845
*548 FILLER_100_1857
*549 FILLER_100_1869
*550 FILLER_100_1875
*551 FILLER_100_1877
*552 FILLER_100_1889
*553 FILLER_100_189
*554 FILLER_100_1901
*555 FILLER_100_1913
*556 FILLER_100_1925
*557 FILLER_100_195
*558 FILLER_100_197
*559 FILLER_100_209
*560 FILLER_100_221
*561 FILLER_100_233
*562 FILLER_100_245
*563 FILLER_100_251
*564 FILLER_100_253
*565 FILLER_100_265
*566 FILLER_100_27
*567 FILLER_100_277
*568 FILLER_100_289
*569 FILLER_100_29
*570 FILLER_100_3
*571 FILLER_100_301
*572 FILLER_100_307
*573 FILLER_100_309
*574 FILLER_100_321
*575 FILLER_100_333
*576 FILLER_100_345
*577 FILLER_100_357
*578 FILLER_100_363
*579 FILLER_100_365
*580 FILLER_100_377
*581 FILLER_100_389
*582 FILLER_100_401
*583 FILLER_100_41
*584 FILLER_100_413
*585 FILLER_100_419
*586 FILLER_100_421
*587 FILLER_100_433
*588 FILLER_100_445
*589 FILLER_100_457
*590 FILLER_100_469
*591 FILLER_100_475
*592 FILLER_100_477
*593 FILLER_100_489
*594 FILLER_100_501
*595 FILLER_100_513
*596 FILLER_100_525
*597 FILLER_100_53
*598 FILLER_100_531
*599 FILLER_100_533
*600 FILLER_100_545
*601 FILLER_100_557
*602 FILLER_100_569
*603 FILLER_100_581
*604 FILLER_100_587
*605 FILLER_100_589
*606 FILLER_100_601
*607 FILLER_100_613
*608 FILLER_100_625
*609 FILLER_100_637
*610 FILLER_100_643
*611 FILLER_100_645
*612 FILLER_100_65
*613 FILLER_100_657
*614 FILLER_100_669
*615 FILLER_100_681
*616 FILLER_100_693
*617 FILLER_100_699
*618 FILLER_100_701
*619 FILLER_100_713
*620 FILLER_100_725
*621 FILLER_100_737
*622 FILLER_100_749
*623 FILLER_100_755
*624 FILLER_100_757
*625 FILLER_100_769
*626 FILLER_100_77
*627 FILLER_100_781
*628 FILLER_100_793
*629 FILLER_100_805
*630 FILLER_100_811
*631 FILLER_100_813
*632 FILLER_100_825
*633 FILLER_100_83
*634 FILLER_100_837
*635 FILLER_100_849
*636 FILLER_100_85
*637 FILLER_100_861
*638 FILLER_100_867
*639 FILLER_100_869
*640 FILLER_100_881
*641 FILLER_100_893
*642 FILLER_100_905
*643 FILLER_100_917
*644 FILLER_100_923
*645 FILLER_100_925
*646 FILLER_100_937
*647 FILLER_100_949
*648 FILLER_100_961
*649 FILLER_100_97
*650 FILLER_100_973
*651 FILLER_100_979
*652 FILLER_100_981
*653 FILLER_100_993
*654 FILLER_101_1001
*655 FILLER_101_1007
*656 FILLER_101_1009
*657 FILLER_101_1021
*658 FILLER_101_1033
*659 FILLER_101_1045
*660 FILLER_101_105
*661 FILLER_101_1057
*662 FILLER_101_1063
*663 FILLER_101_1065
*664 FILLER_101_1077
*665 FILLER_101_1089
*666 FILLER_101_1101
*667 FILLER_101_111
*668 FILLER_101_1113
*669 FILLER_101_1119
*670 FILLER_101_1121
*671 FILLER_101_113
*672 FILLER_101_1133
*673 FILLER_101_1145
*674 FILLER_101_1157
*675 FILLER_101_1169
*676 FILLER_101_1175
*677 FILLER_101_1177
*678 FILLER_101_1189
*679 FILLER_101_1201
*680 FILLER_101_1213
*681 FILLER_101_1225
*682 FILLER_101_1231
*683 FILLER_101_1233
*684 FILLER_101_1245
*685 FILLER_101_125
*686 FILLER_101_1257
*687 FILLER_101_1269
*688 FILLER_101_1281
*689 FILLER_101_1287
*690 FILLER_101_1289
*691 FILLER_101_1301
*692 FILLER_101_1313
*693 FILLER_101_1325
*694 FILLER_101_1337
*695 FILLER_101_1343
*696 FILLER_101_1345
*697 FILLER_101_1357
*698 FILLER_101_1369
*699 FILLER_101_137
*700 FILLER_101_1381
*701 FILLER_101_1393
*702 FILLER_101_1399
*703 FILLER_101_1401
*704 FILLER_101_1413
*705 FILLER_101_1425
*706 FILLER_101_1437
*707 FILLER_101_1449
*708 FILLER_101_1455
*709 FILLER_101_1457
*710 FILLER_101_1469
*711 FILLER_101_1481
*712 FILLER_101_149
*713 FILLER_101_1493
*714 FILLER_101_15
*715 FILLER_101_1505
*716 FILLER_101_1511
*717 FILLER_101_1513
*718 FILLER_101_1525
*719 FILLER_101_1537
*720 FILLER_101_1549
*721 FILLER_101_1561
*722 FILLER_101_1567
*723 FILLER_101_1569
*724 FILLER_101_1581
*725 FILLER_101_1593
*726 FILLER_101_1605
*727 FILLER_101_161
*728 FILLER_101_1617
*729 FILLER_101_1623
*730 FILLER_101_1625
*731 FILLER_101_1637
*732 FILLER_101_1649
*733 FILLER_101_1661
*734 FILLER_101_167
*735 FILLER_101_1673
*736 FILLER_101_1679
*737 FILLER_101_1681
*738 FILLER_101_169
*739 FILLER_101_1693
*740 FILLER_101_1705
*741 FILLER_101_1717
*742 FILLER_101_1729
*743 FILLER_101_1735
*744 FILLER_101_1737
*745 FILLER_101_1749
*746 FILLER_101_1761
*747 FILLER_101_1773
*748 FILLER_101_1785
*749 FILLER_101_1791
*750 FILLER_101_1793
*751 FILLER_101_1805
*752 FILLER_101_181
*753 FILLER_101_1817
*754 FILLER_101_1829
*755 FILLER_101_1841
*756 FILLER_101_1847
*757 FILLER_101_1849
*758 FILLER_101_1861
*759 FILLER_101_1873
*760 FILLER_101_1885
*761 FILLER_101_1897
*762 FILLER_101_1903
*763 FILLER_101_1905
*764 FILLER_101_1917
*765 FILLER_101_193
*766 FILLER_101_205
*767 FILLER_101_217
*768 FILLER_101_223
*769 FILLER_101_225
*770 FILLER_101_237
*771 FILLER_101_249
*772 FILLER_101_261
*773 FILLER_101_27
*774 FILLER_101_273
*775 FILLER_101_279
*776 FILLER_101_281
*777 FILLER_101_293
*778 FILLER_101_3
*779 FILLER_101_305
*780 FILLER_101_317
*781 FILLER_101_329
*782 FILLER_101_335
*783 FILLER_101_337
*784 FILLER_101_349
*785 FILLER_101_361
*786 FILLER_101_373
*787 FILLER_101_385
*788 FILLER_101_39
*789 FILLER_101_391
*790 FILLER_101_393
*791 FILLER_101_405
*792 FILLER_101_417
*793 FILLER_101_429
*794 FILLER_101_441
*795 FILLER_101_447
*796 FILLER_101_449
*797 FILLER_101_461
*798 FILLER_101_473
*799 FILLER_101_485
*800 FILLER_101_497
*801 FILLER_101_503
*802 FILLER_101_505
*803 FILLER_101_51
*804 FILLER_101_517
*805 FILLER_101_529
*806 FILLER_101_541
*807 FILLER_101_55
*808 FILLER_101_553
*809 FILLER_101_559
*810 FILLER_101_561
*811 FILLER_101_57
*812 FILLER_101_573
*813 FILLER_101_585
*814 FILLER_101_597
*815 FILLER_101_609
*816 FILLER_101_615
*817 FILLER_101_617
*818 FILLER_101_629
*819 FILLER_101_641
*820 FILLER_101_653
*821 FILLER_101_665
*822 FILLER_101_671
*823 FILLER_101_673
*824 FILLER_101_685
*825 FILLER_101_69
*826 FILLER_101_697
*827 FILLER_101_709
*828 FILLER_101_721
*829 FILLER_101_727
*830 FILLER_101_729
*831 FILLER_101_741
*832 FILLER_101_753
*833 FILLER_101_765
*834 FILLER_101_777
*835 FILLER_101_783
*836 FILLER_101_785
*837 FILLER_101_797
*838 FILLER_101_809
*839 FILLER_101_81
*840 FILLER_101_821
*841 FILLER_101_833
*842 FILLER_101_839
*843 FILLER_101_841
*844 FILLER_101_853
*845 FILLER_101_865
*846 FILLER_101_877
*847 FILLER_101_889
*848 FILLER_101_895
*849 FILLER_101_897
*850 FILLER_101_909
*851 FILLER_101_921
*852 FILLER_101_93
*853 FILLER_101_933
*854 FILLER_101_945
*855 FILLER_101_951
*856 FILLER_101_953
*857 FILLER_101_965
*858 FILLER_101_977
*859 FILLER_101_989
*860 FILLER_102_1005
*861 FILLER_102_1017
*862 FILLER_102_1029
*863 FILLER_102_1035
*864 FILLER_102_1037
*865 FILLER_102_1049
*866 FILLER_102_1061
*867 FILLER_102_1073
*868 FILLER_102_1085
*869 FILLER_102_109
*870 FILLER_102_1091
*871 FILLER_102_1093
*872 FILLER_102_1105
*873 FILLER_102_1117
*874 FILLER_102_1129
*875 FILLER_102_1141
*876 FILLER_102_1147
*877 FILLER_102_1149
*878 FILLER_102_1161
*879 FILLER_102_1173
*880 FILLER_102_1185
*881 FILLER_102_1197
*882 FILLER_102_1203
*883 FILLER_102_1205
*884 FILLER_102_121
*885 FILLER_102_1217
*886 FILLER_102_1229
*887 FILLER_102_1241
*888 FILLER_102_1253
*889 FILLER_102_1259
*890 FILLER_102_1261
*891 FILLER_102_1273
*892 FILLER_102_1285
*893 FILLER_102_1297
*894 FILLER_102_1309
*895 FILLER_102_1315
*896 FILLER_102_1317
*897 FILLER_102_1329
*898 FILLER_102_133
*899 FILLER_102_1341
*900 FILLER_102_1353
*901 FILLER_102_1365
*902 FILLER_102_1371
*903 FILLER_102_1373
*904 FILLER_102_1385
*905 FILLER_102_139
*906 FILLER_102_1397
*907 FILLER_102_1409
*908 FILLER_102_141
*909 FILLER_102_1421
*910 FILLER_102_1427
*911 FILLER_102_1429
*912 FILLER_102_1441
*913 FILLER_102_1453
*914 FILLER_102_1465
*915 FILLER_102_1477
*916 FILLER_102_1483
*917 FILLER_102_1485
*918 FILLER_102_1497
*919 FILLER_102_15
*920 FILLER_102_1509
*921 FILLER_102_1521
*922 FILLER_102_153
*923 FILLER_102_1533
*924 FILLER_102_1539
*925 FILLER_102_1541
*926 FILLER_102_1553
*927 FILLER_102_1565
*928 FILLER_102_1577
*929 FILLER_102_1589
*930 FILLER_102_1595
*931 FILLER_102_1597
*932 FILLER_102_1609
*933 FILLER_102_1621
*934 FILLER_102_1633
*935 FILLER_102_1645
*936 FILLER_102_165
*937 FILLER_102_1651
*938 FILLER_102_1653
*939 FILLER_102_1665
*940 FILLER_102_1677
*941 FILLER_102_1689
*942 FILLER_102_1701
*943 FILLER_102_1707
*944 FILLER_102_1709
*945 FILLER_102_1721
*946 FILLER_102_1733
*947 FILLER_102_1745
*948 FILLER_102_1757
*949 FILLER_102_1763
*950 FILLER_102_1765
*951 FILLER_102_177
*952 FILLER_102_1777
*953 FILLER_102_1789
*954 FILLER_102_1801
*955 FILLER_102_1813
*956 FILLER_102_1819
*957 FILLER_102_1821
*958 FILLER_102_1833
*959 FILLER_102_1845
*960 FILLER_102_1857
*961 FILLER_102_1869
*962 FILLER_102_1875
*963 FILLER_102_1877
*964 FILLER_102_1889
*965 FILLER_102_189
*966 FILLER_102_1901
*967 FILLER_102_1913
*968 FILLER_102_1925
*969 FILLER_102_195
*970 FILLER_102_197
*971 FILLER_102_209
*972 FILLER_102_221
*973 FILLER_102_233
*974 FILLER_102_245
*975 FILLER_102_251
*976 FILLER_102_253
*977 FILLER_102_265
*978 FILLER_102_27
*979 FILLER_102_277
*980 FILLER_102_289
*981 FILLER_102_29
*982 FILLER_102_3
*983 FILLER_102_301
*984 FILLER_102_307
*985 FILLER_102_309
*986 FILLER_102_321
*987 FILLER_102_333
*988 FILLER_102_345
*989 FILLER_102_357
*990 FILLER_102_363
*991 FILLER_102_365
*992 FILLER_102_377
*993 FILLER_102_389
*994 FILLER_102_401
*995 FILLER_102_41
*996 FILLER_102_413
*997 FILLER_102_419
*998 FILLER_102_421
*999 FILLER_102_433
*1000 FILLER_102_445
*1001 FILLER_102_457
*1002 FILLER_102_469
*1003 FILLER_102_475
*1004 FILLER_102_477
*1005 FILLER_102_489
*1006 FILLER_102_501
*1007 FILLER_102_513
*1008 FILLER_102_525
*1009 FILLER_102_53
*1010 FILLER_102_531
*1011 FILLER_102_533
*1012 FILLER_102_545
*1013 FILLER_102_557
*1014 FILLER_102_569
*1015 FILLER_102_581
*1016 FILLER_102_587
*1017 FILLER_102_589
*1018 FILLER_102_601
*1019 FILLER_102_613
*1020 FILLER_102_625
*1021 FILLER_102_637
*1022 FILLER_102_643
*1023 FILLER_102_645
*1024 FILLER_102_65
*1025 FILLER_102_657
*1026 FILLER_102_669
*1027 FILLER_102_681
*1028 FILLER_102_693
*1029 FILLER_102_699
*1030 FILLER_102_701
*1031 FILLER_102_713
*1032 FILLER_102_725
*1033 FILLER_102_737
*1034 FILLER_102_749
*1035 FILLER_102_755
*1036 FILLER_102_757
*1037 FILLER_102_769
*1038 FILLER_102_77
*1039 FILLER_102_781
*1040 FILLER_102_793
*1041 FILLER_102_805
*1042 FILLER_102_811
*1043 FILLER_102_813
*1044 FILLER_102_825
*1045 FILLER_102_83
*1046 FILLER_102_837
*1047 FILLER_102_849
*1048 FILLER_102_85
*1049 FILLER_102_861
*1050 FILLER_102_867
*1051 FILLER_102_869
*1052 FILLER_102_881
*1053 FILLER_102_893
*1054 FILLER_102_905
*1055 FILLER_102_917
*1056 FILLER_102_923
*1057 FILLER_102_925
*1058 FILLER_102_937
*1059 FILLER_102_949
*1060 FILLER_102_961
*1061 FILLER_102_97
*1062 FILLER_102_973
*1063 FILLER_102_979
*1064 FILLER_102_981
*1065 FILLER_102_993
*1066 FILLER_103_1001
*1067 FILLER_103_1007
*1068 FILLER_103_1009
*1069 FILLER_103_1021
*1070 FILLER_103_1033
*1071 FILLER_103_1045
*1072 FILLER_103_105
*1073 FILLER_103_1057
*1074 FILLER_103_1063
*1075 FILLER_103_1065
*1076 FILLER_103_1077
*1077 FILLER_103_1089
*1078 FILLER_103_1101
*1079 FILLER_103_111
*1080 FILLER_103_1113
*1081 FILLER_103_1119
*1082 FILLER_103_1121
*1083 FILLER_103_113
*1084 FILLER_103_1133
*1085 FILLER_103_1145
*1086 FILLER_103_1157
*1087 FILLER_103_1169
*1088 FILLER_103_1175
*1089 FILLER_103_1177
*1090 FILLER_103_1189
*1091 FILLER_103_1201
*1092 FILLER_103_1213
*1093 FILLER_103_1225
*1094 FILLER_103_1231
*1095 FILLER_103_1233
*1096 FILLER_103_1245
*1097 FILLER_103_125
*1098 FILLER_103_1257
*1099 FILLER_103_1269
*1100 FILLER_103_1281
*1101 FILLER_103_1287
*1102 FILLER_103_1289
*1103 FILLER_103_1301
*1104 FILLER_103_1313
*1105 FILLER_103_1325
*1106 FILLER_103_1337
*1107 FILLER_103_1343
*1108 FILLER_103_1345
*1109 FILLER_103_1357
*1110 FILLER_103_1369
*1111 FILLER_103_137
*1112 FILLER_103_1381
*1113 FILLER_103_1393
*1114 FILLER_103_1399
*1115 FILLER_103_1401
*1116 FILLER_103_1413
*1117 FILLER_103_1425
*1118 FILLER_103_1437
*1119 FILLER_103_1449
*1120 FILLER_103_1455
*1121 FILLER_103_1457
*1122 FILLER_103_1469
*1123 FILLER_103_1481
*1124 FILLER_103_149
*1125 FILLER_103_1493
*1126 FILLER_103_15
*1127 FILLER_103_1505
*1128 FILLER_103_1511
*1129 FILLER_103_1513
*1130 FILLER_103_1525
*1131 FILLER_103_1537
*1132 FILLER_103_1549
*1133 FILLER_103_1561
*1134 FILLER_103_1567
*1135 FILLER_103_1569
*1136 FILLER_103_1581
*1137 FILLER_103_1593
*1138 FILLER_103_1605
*1139 FILLER_103_161
*1140 FILLER_103_1617
*1141 FILLER_103_1623
*1142 FILLER_103_1625
*1143 FILLER_103_1637
*1144 FILLER_103_1649
*1145 FILLER_103_1661
*1146 FILLER_103_167
*1147 FILLER_103_1673
*1148 FILLER_103_1679
*1149 FILLER_103_1681
*1150 FILLER_103_169
*1151 FILLER_103_1693
*1152 FILLER_103_1705
*1153 FILLER_103_1717
*1154 FILLER_103_1729
*1155 FILLER_103_1735
*1156 FILLER_103_1737
*1157 FILLER_103_1749
*1158 FILLER_103_1761
*1159 FILLER_103_1773
*1160 FILLER_103_1785
*1161 FILLER_103_1791
*1162 FILLER_103_1793
*1163 FILLER_103_1805
*1164 FILLER_103_181
*1165 FILLER_103_1817
*1166 FILLER_103_1829
*1167 FILLER_103_1841
*1168 FILLER_103_1847
*1169 FILLER_103_1849
*1170 FILLER_103_1861
*1171 FILLER_103_1873
*1172 FILLER_103_1885
*1173 FILLER_103_1897
*1174 FILLER_103_1903
*1175 FILLER_103_1905
*1176 FILLER_103_1917
*1177 FILLER_103_193
*1178 FILLER_103_205
*1179 FILLER_103_217
*1180 FILLER_103_223
*1181 FILLER_103_225
*1182 FILLER_103_237
*1183 FILLER_103_249
*1184 FILLER_103_261
*1185 FILLER_103_27
*1186 FILLER_103_273
*1187 FILLER_103_279
*1188 FILLER_103_281
*1189 FILLER_103_293
*1190 FILLER_103_3
*1191 FILLER_103_305
*1192 FILLER_103_317
*1193 FILLER_103_329
*1194 FILLER_103_335
*1195 FILLER_103_337
*1196 FILLER_103_349
*1197 FILLER_103_361
*1198 FILLER_103_373
*1199 FILLER_103_385
*1200 FILLER_103_39
*1201 FILLER_103_391
*1202 FILLER_103_393
*1203 FILLER_103_405
*1204 FILLER_103_417
*1205 FILLER_103_429
*1206 FILLER_103_441
*1207 FILLER_103_447
*1208 FILLER_103_449
*1209 FILLER_103_461
*1210 FILLER_103_473
*1211 FILLER_103_485
*1212 FILLER_103_497
*1213 FILLER_103_503
*1214 FILLER_103_505
*1215 FILLER_103_51
*1216 FILLER_103_517
*1217 FILLER_103_529
*1218 FILLER_103_541
*1219 FILLER_103_55
*1220 FILLER_103_553
*1221 FILLER_103_559
*1222 FILLER_103_561
*1223 FILLER_103_57
*1224 FILLER_103_573
*1225 FILLER_103_585
*1226 FILLER_103_597
*1227 FILLER_103_609
*1228 FILLER_103_615
*1229 FILLER_103_617
*1230 FILLER_103_629
*1231 FILLER_103_641
*1232 FILLER_103_653
*1233 FILLER_103_665
*1234 FILLER_103_671
*1235 FILLER_103_673
*1236 FILLER_103_685
*1237 FILLER_103_69
*1238 FILLER_103_697
*1239 FILLER_103_709
*1240 FILLER_103_721
*1241 FILLER_103_727
*1242 FILLER_103_729
*1243 FILLER_103_741
*1244 FILLER_103_753
*1245 FILLER_103_765
*1246 FILLER_103_777
*1247 FILLER_103_783
*1248 FILLER_103_785
*1249 FILLER_103_797
*1250 FILLER_103_809
*1251 FILLER_103_81
*1252 FILLER_103_821
*1253 FILLER_103_833
*1254 FILLER_103_839
*1255 FILLER_103_841
*1256 FILLER_103_853
*1257 FILLER_103_865
*1258 FILLER_103_877
*1259 FILLER_103_889
*1260 FILLER_103_895
*1261 FILLER_103_897
*1262 FILLER_103_909
*1263 FILLER_103_921
*1264 FILLER_103_93
*1265 FILLER_103_933
*1266 FILLER_103_945
*1267 FILLER_103_951
*1268 FILLER_103_953
*1269 FILLER_103_965
*1270 FILLER_103_977
*1271 FILLER_103_989
*1272 FILLER_104_1005
*1273 FILLER_104_1017
*1274 FILLER_104_1029
*1275 FILLER_104_1035
*1276 FILLER_104_1037
*1277 FILLER_104_1049
*1278 FILLER_104_1061
*1279 FILLER_104_1073
*1280 FILLER_104_1085
*1281 FILLER_104_109
*1282 FILLER_104_1091
*1283 FILLER_104_1093
*1284 FILLER_104_1105
*1285 FILLER_104_1117
*1286 FILLER_104_1129
*1287 FILLER_104_1141
*1288 FILLER_104_1147
*1289 FILLER_104_1149
*1290 FILLER_104_1161
*1291 FILLER_104_1173
*1292 FILLER_104_1185
*1293 FILLER_104_1197
*1294 FILLER_104_1203
*1295 FILLER_104_1205
*1296 FILLER_104_121
*1297 FILLER_104_1217
*1298 FILLER_104_1229
*1299 FILLER_104_1241
*1300 FILLER_104_1253
*1301 FILLER_104_1259
*1302 FILLER_104_1261
*1303 FILLER_104_1273
*1304 FILLER_104_1285
*1305 FILLER_104_1297
*1306 FILLER_104_1309
*1307 FILLER_104_1315
*1308 FILLER_104_1317
*1309 FILLER_104_1329
*1310 FILLER_104_133
*1311 FILLER_104_1341
*1312 FILLER_104_1353
*1313 FILLER_104_1365
*1314 FILLER_104_1371
*1315 FILLER_104_1373
*1316 FILLER_104_1385
*1317 FILLER_104_139
*1318 FILLER_104_1397
*1319 FILLER_104_1409
*1320 FILLER_104_141
*1321 FILLER_104_1421
*1322 FILLER_104_1427
*1323 FILLER_104_1429
*1324 FILLER_104_1441
*1325 FILLER_104_1453
*1326 FILLER_104_1465
*1327 FILLER_104_1477
*1328 FILLER_104_1483
*1329 FILLER_104_1485
*1330 FILLER_104_1497
*1331 FILLER_104_15
*1332 FILLER_104_1509
*1333 FILLER_104_1521
*1334 FILLER_104_153
*1335 FILLER_104_1533
*1336 FILLER_104_1539
*1337 FILLER_104_1541
*1338 FILLER_104_1553
*1339 FILLER_104_1565
*1340 FILLER_104_1577
*1341 FILLER_104_1589
*1342 FILLER_104_1595
*1343 FILLER_104_1597
*1344 FILLER_104_1609
*1345 FILLER_104_1621
*1346 FILLER_104_1633
*1347 FILLER_104_1645
*1348 FILLER_104_165
*1349 FILLER_104_1651
*1350 FILLER_104_1653
*1351 FILLER_104_1665
*1352 FILLER_104_1677
*1353 FILLER_104_1689
*1354 FILLER_104_1701
*1355 FILLER_104_1707
*1356 FILLER_104_1709
*1357 FILLER_104_1721
*1358 FILLER_104_1733
*1359 FILLER_104_1745
*1360 FILLER_104_1757
*1361 FILLER_104_1763
*1362 FILLER_104_1765
*1363 FILLER_104_177
*1364 FILLER_104_1777
*1365 FILLER_104_1789
*1366 FILLER_104_1801
*1367 FILLER_104_1813
*1368 FILLER_104_1819
*1369 FILLER_104_1821
*1370 FILLER_104_1833
*1371 FILLER_104_1845
*1372 FILLER_104_1857
*1373 FILLER_104_1869
*1374 FILLER_104_1875
*1375 FILLER_104_1877
*1376 FILLER_104_1889
*1377 FILLER_104_189
*1378 FILLER_104_1901
*1379 FILLER_104_1913
*1380 FILLER_104_1925
*1381 FILLER_104_195
*1382 FILLER_104_197
*1383 FILLER_104_209
*1384 FILLER_104_221
*1385 FILLER_104_233
*1386 FILLER_104_245
*1387 FILLER_104_251
*1388 FILLER_104_253
*1389 FILLER_104_265
*1390 FILLER_104_27
*1391 FILLER_104_277
*1392 FILLER_104_289
*1393 FILLER_104_29
*1394 FILLER_104_3
*1395 FILLER_104_301
*1396 FILLER_104_307
*1397 FILLER_104_309
*1398 FILLER_104_321
*1399 FILLER_104_333
*1400 FILLER_104_345
*1401 FILLER_104_357
*1402 FILLER_104_363
*1403 FILLER_104_365
*1404 FILLER_104_377
*1405 FILLER_104_389
*1406 FILLER_104_401
*1407 FILLER_104_41
*1408 FILLER_104_413
*1409 FILLER_104_419
*1410 FILLER_104_421
*1411 FILLER_104_433
*1412 FILLER_104_445
*1413 FILLER_104_457
*1414 FILLER_104_469
*1415 FILLER_104_475
*1416 FILLER_104_477
*1417 FILLER_104_489
*1418 FILLER_104_501
*1419 FILLER_104_513
*1420 FILLER_104_525
*1421 FILLER_104_53
*1422 FILLER_104_531
*1423 FILLER_104_533
*1424 FILLER_104_545
*1425 FILLER_104_557
*1426 FILLER_104_569
*1427 FILLER_104_581
*1428 FILLER_104_587
*1429 FILLER_104_589
*1430 FILLER_104_601
*1431 FILLER_104_613
*1432 FILLER_104_625
*1433 FILLER_104_637
*1434 FILLER_104_643
*1435 FILLER_104_645
*1436 FILLER_104_65
*1437 FILLER_104_657
*1438 FILLER_104_669
*1439 FILLER_104_681
*1440 FILLER_104_693
*1441 FILLER_104_699
*1442 FILLER_104_701
*1443 FILLER_104_713
*1444 FILLER_104_725
*1445 FILLER_104_737
*1446 FILLER_104_749
*1447 FILLER_104_755
*1448 FILLER_104_757
*1449 FILLER_104_769
*1450 FILLER_104_77
*1451 FILLER_104_781
*1452 FILLER_104_793
*1453 FILLER_104_805
*1454 FILLER_104_811
*1455 FILLER_104_813
*1456 FILLER_104_825
*1457 FILLER_104_83
*1458 FILLER_104_837
*1459 FILLER_104_849
*1460 FILLER_104_85
*1461 FILLER_104_861
*1462 FILLER_104_867
*1463 FILLER_104_869
*1464 FILLER_104_881
*1465 FILLER_104_893
*1466 FILLER_104_905
*1467 FILLER_104_917
*1468 FILLER_104_923
*1469 FILLER_104_925
*1470 FILLER_104_937
*1471 FILLER_104_949
*1472 FILLER_104_961
*1473 FILLER_104_97
*1474 FILLER_104_973
*1475 FILLER_104_979
*1476 FILLER_104_981
*1477 FILLER_104_993
*1478 FILLER_105_1001
*1479 FILLER_105_1007
*1480 FILLER_105_1009
*1481 FILLER_105_1021
*1482 FILLER_105_1033
*1483 FILLER_105_1045
*1484 FILLER_105_105
*1485 FILLER_105_1057
*1486 FILLER_105_1063
*1487 FILLER_105_1065
*1488 FILLER_105_1077
*1489 FILLER_105_1089
*1490 FILLER_105_1101
*1491 FILLER_105_111
*1492 FILLER_105_1113
*1493 FILLER_105_1119
*1494 FILLER_105_1121
*1495 FILLER_105_113
*1496 FILLER_105_1133
*1497 FILLER_105_1145
*1498 FILLER_105_1157
*1499 FILLER_105_1169
*1500 FILLER_105_1175
*1501 FILLER_105_1177
*1502 FILLER_105_1189
*1503 FILLER_105_1201
*1504 FILLER_105_1213
*1505 FILLER_105_1225
*1506 FILLER_105_1231
*1507 FILLER_105_1233
*1508 FILLER_105_1245
*1509 FILLER_105_125
*1510 FILLER_105_1257
*1511 FILLER_105_1269
*1512 FILLER_105_1281
*1513 FILLER_105_1287
*1514 FILLER_105_1289
*1515 FILLER_105_1301
*1516 FILLER_105_1313
*1517 FILLER_105_1325
*1518 FILLER_105_1337
*1519 FILLER_105_1343
*1520 FILLER_105_1345
*1521 FILLER_105_1357
*1522 FILLER_105_1369
*1523 FILLER_105_137
*1524 FILLER_105_1381
*1525 FILLER_105_1393
*1526 FILLER_105_1399
*1527 FILLER_105_1401
*1528 FILLER_105_1413
*1529 FILLER_105_1425
*1530 FILLER_105_1437
*1531 FILLER_105_1449
*1532 FILLER_105_1455
*1533 FILLER_105_1457
*1534 FILLER_105_1469